<?xml version="1.0" encoding="UTF-8"?>
<!DOCTYPE facilities SYSTEM "http://www.matsim.org/files/dtd/facilities_v2.dtd">

<facilities name="Land Use">
	<facility id="10003644033" x="4591067.4874190455" y="5823159.472059635" desc="MuseumderTrostfrauen">
		<activity type="attraction">
		</activity>
	</facility>
	<facility id="10003704986" x="4590277.7373673525" y="5822883.474019978" desc="Gikon">
		<activity type="hotel">
		</activity>
	</facility>
	<facility id="10029372863" x="4594423.719510907" y="5818076.389270959" desc="KurtMühlenhauptMuseum">
		<activity type="attraction">
		</activity>
	</facility>
	<facility id="10035927974" x="4593827.967114312" y="5820061.924650218" desc="PreciseTaleBerlin">
		<activity type="hotel">
		</activity>
	</facility>
	<facility id="10039702475" x="4593069.970550449" y="5826187.465086757" desc="VanessaPrinz">
		<activity type="hotel">
		</activity>
	</facility>
	<facility id="10041423479" x="4592959.918447033" y="5822769.048519781" desc="HausKunstMitte">
		<activity type="attraction">
		</activity>
	</facility>
	<facility id="10108628617" x="4593342.204520775" y="5811450.881126509" desc="IBWohnheim">
		<activity type="hotel">
		</activity>
	</facility>
	<facility id="10110772202" x="4589551.488539969" y="5810203.409563877" desc="JugendgästehausLichterfelde">
		<activity type="hotel">
		</activity>
	</facility>
	<facility id="1011897688" x="4584883.660369259" y="5823806.09064938" desc="OldTexasTown">
		<activity type="attraction">
		</activity>
	</facility>
	<facility id="1012992898" x="4603200.3879668815" y="5817600.224126558" desc="Mit-Mensch">
		<activity type="hotel">
		</activity>
	</facility>
	<facility id="10142723917" x="4594488.039333013" y="5821389.938833599" desc="BudSpencerMuseum">
		<activity type="attraction">
		</activity>
	</facility>
	<facility id="1014916947" x="4598283.229217792" y="5815176.464883329" desc="IbisHotel">
		<activity type="hotel">
		</activity>
	</facility>
	<facility id="10154918993" x="4610910.284143892" y="5806070.352573617" desc="KleinesEichwalderMuseumfürOrtsgeschichte">
		<activity type="attraction">
		</activity>
	</facility>
	<facility id="10171428170" x="4595251.490479598" y="5822707.129517691" desc="ApartmentRosenthalResidence">
		<activity type="hotel">
		</activity>
	</facility>
	<facility id="10188696588" x="4587883.955393912" y="5820547.600851815" desc="HotelKaiser">
		<activity type="hotel">
		</activity>
	</facility>
	<facility id="10189036" x="4606877.940781465" y="5810078.553728543" desc="CityGreenBerlin">
		<activity type="hotel">
		</activity>
	</facility>
	<facility id="1023020168" x="4602721.749787341" y="5822721.069719563" desc="MuseumKesselhaus">
		<activity type="attraction">
		</activity>
	</facility>
	<facility id="102413148" x="4598505.562884755" y="5814877.264070587" desc="CentroParkHotelBerlinNeukölln">
		<activity type="hotel">
		</activity>
	</facility>
	<facility id="10264516383" x="4594751.4194748895" y="5822121.936353197" desc="Telegraphenamt">
		<activity type="hotel">
		</activity>
	</facility>
	<facility id="10280078538" x="4587620.218285181" y="5821819.3371344805" desc="Schlosspark-HotelBerlin">
		<activity type="hotel">
		</activity>
	</facility>
	<facility id="102813193" x="4593781.239782276" y="5819224.466685863" desc="ScienceCenterSpectrum">
		<activity type="attraction">
		</activity>
	</facility>
	<facility id="10300297452" x="4589180.115172294" y="5820033.777422502" desc="stilwerkHotelKantGaragen">
		<activity type="hotel">
		</activity>
	</facility>
	<facility id="10314816005" x="4592472.213501122" y="5818251.821916416" desc="FirmaHassan">
		<activity type="attraction">
		</activity>
	</facility>
	<facility id="1033893408" x="4598422.569832416" y="5820038.875988042" desc="MichelbergerHotel">
		<activity type="hotel">
		</activity>
	</facility>
	<facility id="1035930982" x="4605959.395893039" y="5820399.153373343" desc="BiesdorfCenter">
		<activity type="attraction">
		</activity>
	</facility>
	<facility id="1039863708" x="4593846.179707307" y="5818237.274286294" desc="TiergehegeimViktoriapark">
		<activity type="attraction">
		</activity>
	</facility>
	<facility id="104011054" x="4595438.12519495" y="5820603.1226774715" desc="TitanicComfortHotelBerlinMitte">
		<activity type="hotel">
		</activity>
	</facility>
	<facility id="1041665235" x="4591883.106839165" y="5830440.28596433" desc="MärkischeZeile">
		<activity type="attraction">
		</activity>
	</facility>
	<facility id="1042056245" x="4606544.181667602" y="5823729.33208307" desc="GaertenDerWelt">
		<activity type="attraction">
		</activity>
	</facility>
	<facility id="104393230" x="4593735.905973076" y="5822708.288945957" desc="HotelBerlinMittebyCampanile">
		<activity type="hotel">
		</activity>
	</facility>
	<facility id="104397217" x="4594599.349555947" y="5827493.619202436" desc="AkademieHotelBerlin-Pankow">
		<activity type="hotel">
		</activity>
	</facility>
	<facility id="104506319" x="4580156.472052486" y="5823221.066068476" desc="HotelAmWasserturm">
		<activity type="hotel">
		</activity>
	</facility>
	<facility id="104515701" x="4597085.717814478" y="5829410.93621241" desc="BusinesshotelBerlin">
		<activity type="hotel">
		</activity>
	</facility>
	<facility id="104776772" x="4593211.030491526" y="5822643.747180971" desc="Kleihueshalle">
		<activity type="attraction">
		</activity>
	</facility>
	<facility id="105154993" x="4594905.824261865" y="5823027.594156976" desc="Ackerhalle">
		<activity type="attraction">
		</activity>
	</facility>
	<facility id="105210648" x="4595306.875548594" y="5822609.545579554" desc="HotelAmano">
		<activity type="hotel">
		</activity>
	</facility>
	<facility id="10536418997" x="4590437.194538584" y="5818881.376921262" desc="PremierInnBerlinCityWilmersdorf">
		<activity type="hotel">
		</activity>
	</facility>
	<facility id="1054276972" x="4590959.775462601" y="5819863.208737325" desc="Europa-Center">
		<activity type="attraction">
		</activity>
	</facility>
	<facility id="10555650464" x="4592841.756063485" y="5822949.868292916" desc="UrbanLoft">
		<activity type="hotel">
		</activity>
	</facility>
	<facility id="105582348" x="4581372.339779253" y="5823982.184849059" desc="LandhausPerle">
		<activity type="hotel">
		</activity>
	</facility>
	<facility id="1055889058" x="4593478.339049111" y="5822570.470716848" desc="RudolfVirchowunddieCharitéderZukunft">
		<activity type="attraction">
		</activity>
	</facility>
	<facility id="105678678" x="4595166.537308705" y="5822371.534555025" desc="Sophie-Gips-Höfe">
		<activity type="attraction">
		</activity>
	</facility>
	<facility id="1056985149" x="4601304.177901584" y="5818065.041600993" desc="Spreeblitz">
		<activity type="attraction">
		</activity>
	</facility>
	<facility id="106050244" x="4581216.855861434" y="5808899.340335191" desc="CheckpointBravo">
		<activity type="attraction">
		</activity>
	</facility>
	<facility id="106170698" x="4586272.51940314" y="5805264.263698352" desc="DeutschesSchweinemuseum">
		<activity type="attraction">
		</activity>
	</facility>
	<facility id="106222513" x="4584501.257455385" y="5808371.500324502" desc="GinnHotels">
		<activity type="hotel">
		</activity>
	</facility>
	<facility id="10632546" x="4587251.497866498" y="5828727.221642355" desc="HallenamBorsigturm">
		<activity type="attraction">
		</activity>
	</facility>
	<facility id="1065864180" x="4592749.816287537" y="5821500.130979096" desc="HausderKulturenderWelt">
		<activity type="attraction">
		</activity>
	</facility>
	<facility id="1066721478" x="4598637.252675066" y="5820951.048061615" desc="Juncker'sHotelGarni">
		<activity type="hotel">
		</activity>
	</facility>
	<facility id="10672271" x="4590296.00530282" y="5827464.781647521" desc="MuseumderStaatlichenMünzeBerlin">
		<activity type="attraction">
		</activity>
	</facility>
	<facility id="106810312" x="4595187.418357436" y="5818988.959730865" desc="HotelJohann">
		<activity type="hotel">
		</activity>
	</facility>
	<facility id="106845513" x="4589918.046576963" y="5819879.2368818885" desc="H’OtelloK’80/Berlin">
		<activity type="hotel">
		</activity>
	</facility>
	<facility id="1069451198" x="4582064.728938971" y="5825675.272755753" desc="HaveluferQuartier">
		<activity type="attraction">
		</activity>
	</facility>
	<facility id="1072624497" x="4600680.506620401" y="5823785.29293038" desc="SandinoHostelBerlin">
		<activity type="hotel">
		</activity>
	</facility>
	<facility id="1073958531" x="4593382.455502726" y="5820421.222519319" desc="TheMandalaHotel">
		<activity type="hotel">
		</activity>
	</facility>
	<facility id="108607225" x="4598361.109506698" y="5819311.087291481" desc="HostelXBerger">
		<activity type="hotel">
		</activity>
	</facility>
	<facility id="109159643" x="4588553.372324331" y="5812543.65828962" desc="ApartHotelLandhausLichterfelde">
		<activity type="hotel">
		</activity>
	</facility>
	<facility id="11076700" x="4590190.567355444" y="5826383.288896588" desc="Einkaufszentrum»DerClou«">
		<activity type="attraction">
		</activity>
	</facility>
	<facility id="1108100226" x="4582097.966463143" y="5826880.860849158" desc="Waldschänke">
		<activity type="hotel">
		</activity>
	</facility>
	<facility id="1118309471" x="4601375.347866684" y="5817941.1150283385" desc="Riesenrad(ehem.)">
		<activity type="attraction">
		</activity>
	</facility>
	<facility id="11249452" x="4602227.104256491" y="5826768.919461235" desc="LindenCenter">
		<activity type="attraction">
		</activity>
	</facility>
	<facility id="11249566" x="4601649.825702645" y="5823514.296555054" desc="Allee-CenterBerlin">
		<activity type="attraction">
		</activity>
	</facility>
	<facility id="1125043960" x="4588189.29054991" y="5819566.532329933" desc="LandmarkecoHotelBerlin">
		<activity type="hotel">
		</activity>
	</facility>
	<facility id="1129787533" x="4594309.697692665" y="5822388.666144843" desc="MärkischerHof">
		<activity type="hotel">
		</activity>
	</facility>
	<facility id="1134199097" x="4594546.789703867" y="5822285.51867946" desc="Hotel38">
		<activity type="hotel">
		</activity>
	</facility>
	<facility id="113550809" x="4593161.264231315" y="5819793.550222716" desc="FjordHotelBerlin">
		<activity type="hotel">
		</activity>
	</facility>
	<facility id="1138450185" x="4591341.005388146" y="5822971.509338402" desc="MercureHotelMoaBerlin">
		<activity type="hotel">
		</activity>
	</facility>
	<facility id="11516702" x="4593934.770007651" y="5820184.834659542" desc="Gropius-Bau">
		<activity type="attraction">
		</activity>
	</facility>
	<facility id="1165969865" x="4596953.975677703" y="5819355.7810918195" desc="VierJahreszeiten">
		<activity type="hotel">
		</activity>
	</facility>
	<facility id="1165969893" x="4594365.297544756" y="5818758.663462412" desc="MetropolHostel">
		<activity type="hotel">
		</activity>
	</facility>
	<facility id="1166456006" x="4589326.252151768" y="5811643.677139122" desc="Treidellokomotive">
		<activity type="attraction">
		</activity>
	</facility>
	<facility id="1169468049" x="4596115.110436292" y="5822324.348474609" desc="H4HotelBerlin-Alexanderplatz">
		<activity type="hotel">
		</activity>
	</facility>
	<facility id="117395689" x="4593697.017128501" y="5825633.244891401" desc="mkhotelberlin">
		<activity type="hotel">
		</activity>
	</facility>
	<facility id="117855555" x="4598392.445779431" y="5825400.903021276" desc="Bethanien-Kirche">
		<activity type="attraction">
		</activity>
	</facility>
	<facility id="1181625806" x="4598390.683240938" y="5819972.294456193" desc="IndustriepalastHostel">
		<activity type="hotel">
		</activity>
	</facility>
	<facility id="118204666" x="4583712.416023819" y="5812499.079309224" desc="HotelLandhausSchlachtensee">
		<activity type="hotel">
		</activity>
	</facility>
	<facility id="1182595451" x="4597839.23986104" y="5821589.201042863" desc="HotelPensionReiter">
		<activity type="hotel">
		</activity>
	</facility>
	<facility id="118268004" x="4581602.321509523" y="5810739.416484664" desc="Robert-Tillmanns-Haus">
		<activity type="hotel">
		</activity>
	</facility>
	<facility id="1189923800" x="4581493.1414707" y="5806397.516796173" desc="Sonneneck">
		<activity type="hotel">
		</activity>
	</facility>
	<facility id="119495739" x="4590240.379046357" y="5820053.658644116" desc="HotelSavoy">
		<activity type="hotel">
		</activity>
	</facility>
	<facility id="1198910017" x="4579906.938420093" y="5821078.854278229" desc="ArcusHotelgarni">
		<activity type="hotel">
		</activity>
	</facility>
	<facility id="1199943378" x="4587271.700498285" y="5820087.249643855" desc="hotelmesse">
		<activity type="hotel">
		</activity>
	</facility>
	<facility id="1200964388" x="4587066.129136465" y="5820442.33341292" desc="BrandiesHotelBerlinMesse">
		<activity type="hotel">
		</activity>
	</facility>
	<facility id="1200964413" x="4588385.83329113" y="5820108.089590512" desc="Cityblick">
		<activity type="hotel">
		</activity>
	</facility>
	<facility id="1200964523" x="4587006.667618082" y="5820438.005819698" desc="HotelAmelie">
		<activity type="hotel">
		</activity>
	</facility>
	<facility id="1200964541" x="4586894.754358757" y="5820367.936333926" desc="Hotel-PensionGribnitz">
		<activity type="hotel">
		</activity>
	</facility>
	<facility id="120314493" x="4594223.719159273" y="5814415.065877841" desc="EKZTempelhoferHafen">
		<activity type="attraction">
		</activity>
	</facility>
	<facility id="120456815" x="4594025.591897468" y="5824979.531780865" desc="MoxyBerlinHumboldthainPark">
		<activity type="hotel">
		</activity>
	</facility>
	<facility id="120472218" x="4591665.813479177" y="5820330.979287664" desc="PestanaBerlinTiergarten">
		<activity type="hotel">
		</activity>
	</facility>
	<facility id="1205003980" x="4594799.988639672" y="5810671.483846385" desc="HotelLandhausAlpinia">
		<activity type="hotel">
		</activity>
	</facility>
	<facility id="1209659403" x="4594193.957346319" y="5818470.318351472" desc="HotelTransit">
		<activity type="hotel">
		</activity>
	</facility>
	<facility id="1212618075" x="4603175.3960945625" y="5817557.966380672" desc="Mit-Mensch">
		<activity type="hotel">
		</activity>
	</facility>
	<facility id="122006131" x="4591169.015773924" y="5822203.8682005005" desc="HotelParkConsul">
		<activity type="hotel">
		</activity>
	</facility>
	<facility id="122898411" x="4609649.403378723" y="5814887.012664434" desc="Hotel-PensionMendau">
		<activity type="hotel">
		</activity>
	</facility>
	<facility id="1229132250" x="4595992.495692703" y="5823135.100091804" desc="MeiningerHotelBerlinAlexanderplatz">
		<activity type="hotel">
		</activity>
	</facility>
	<facility id="1242813831" x="4595240.405620845" y="5820765.638458619" desc="Cosmo">
		<activity type="hotel">
		</activity>
	</facility>
	<facility id="125194752" x="4588826.471866125" y="5814257.041180339" desc="BotanischerGarten">
		<activity type="attraction">
		</activity>
	</facility>
	<facility id="1257750727" x="4594568.833609389" y="5820751.806561944" desc="HotelGendarmnouveau">
		<activity type="hotel">
		</activity>
	</facility>
	<facility id="1257857022" x="4600659.656317314" y="5819903.156433654" desc="MuseumLichtenbergimStadthaus">
		<activity type="attraction">
		</activity>
	</facility>
	<facility id="125895871" x="4592565.369863939" y="5818717.423236284" desc="Lindemann's">
		<activity type="hotel">
		</activity>
	</facility>
	<facility id="1259545063" x="4594096.912927526" y="5819969.702832129" desc="ibisBerlinCityPotsdamerPlatz">
		<activity type="hotel">
		</activity>
	</facility>
	<facility id="1259818858" x="4588535.560380202" y="5820290.015206163" desc="HotelPensionArta">
		<activity type="hotel">
		</activity>
	</facility>
	<facility id="1260572076" x="4595443.2929933565" y="5827970.022801201" desc="DiePankowerMachthaber">
		<activity type="attraction">
		</activity>
	</facility>
	<facility id="126128623" x="4595139.43466074" y="5822030.363171218" desc="monbijouhotel">
		<activity type="hotel">
		</activity>
	</facility>
	<facility id="1270188822" x="4597986.763855997" y="5821485.376058761" desc="ComputerspielemuseumBerlin">
		<activity type="attraction">
		</activity>
	</facility>
	<facility id="1282111598" x="4588486.8707346115" y="5819929.806749491" desc="ArtHotelCharlottenburgerHof">
		<activity type="hotel">
		</activity>
	</facility>
	<facility id="1282111601" x="4588517.079756601" y="5820038.674973905" desc="Adam">
		<activity type="hotel">
		</activity>
	</facility>
	<facility id="1282111605" x="4588521.714984321" y="5820001.615742975" desc="HôtelAtriumCharlottenburg">
		<activity type="hotel">
		</activity>
	</facility>
	<facility id="1282111608" x="4588519.068197515" y="5820021.825706485" desc="BirthCityHotel">
		<activity type="hotel">
		</activity>
	</facility>
	<facility id="1285663836" x="4586318.964443029" y="5820292.299438496" desc="IvbergsHotel">
		<activity type="hotel">
		</activity>
	</facility>
	<facility id="1289504973" x="4596964.167555629" y="5819073.818265214" desc="Regenbogenhostel">
		<activity type="hotel">
		</activity>
	</facility>
	<facility id="1296266115" x="4592971.109531902" y="5819689.040862161" desc="HotelTagungshausTiergarten">
		<activity type="hotel">
		</activity>
	</facility>
	<facility id="1297269762" x="4583905.315943841" y="5819920.546441329" desc="GästehausRosemarieReichwein">
		<activity type="hotel">
		</activity>
	</facility>
	<facility id="129764630" x="4601991.30987812" y="5810509.950832911" desc="DorfkircheRudow">
		<activity type="attraction">
		</activity>
	</facility>
	<facility id="130277322" x="4598865.23912319" y="5820321.2421187" desc="RAWGelände">
		<activity type="attraction">
		</activity>
	</facility>
	<facility id="130661683" x="4591009.339981366" y="5816052.993925511" desc="HotelFriedenau,DasLiteraturhotelBerlin">
		<activity type="hotel">
		</activity>
	</facility>
	<facility id="1306698841" x="4598934.865035173" y="5820811.779716596" desc="Numa">
		<activity type="hotel">
		</activity>
	</facility>
	<facility id="131381658" x="4594030.062478334" y="5822083.145193586" desc="BestWesternHotelBerlin-Mitte">
		<activity type="hotel">
		</activity>
	</facility>
	<facility id="131487807" x="4593635.089832497" y="5821290.30401894" desc="Max-Liebermann-Haus">
		<activity type="attraction">
		</activity>
	</facility>
	<facility id="1314907073" x="4589407.6485567195" y="5819679.856825921" desc="HotelWieland">
		<activity type="hotel">
		</activity>
	</facility>
	<facility id="1321393477" x="4581971.194501183" y="5823776.2631993275" desc="BrauhausSpandau">
		<activity type="hotel">
		</activity>
	</facility>
	<facility id="132555271" x="4596021.264629789" y="5823962.232667772" desc="MuseuminderKulturbrauerei">
		<activity type="attraction">
		</activity>
	</facility>
	<facility id="13312710" x="4596314.983483595" y="5821349.679868189" desc="TheSocialHub">
		<activity type="hotel">
		</activity>
	</facility>
	<facility id="1331371960" x="4608022.337977933" y="5808937.924491656" desc="GrünauHotel">
		<activity type="hotel">
		</activity>
	</facility>
	<facility id="1333747986" x="4591486.205007091" y="5820489.556927787" desc="SO/BerlinDasStue">
		<activity type="hotel">
		</activity>
	</facility>
	<facility id="1343144279" x="4590508.942797563" y="5821978.0968306735" desc="LesNations">
		<activity type="hotel">
		</activity>
	</facility>
	<facility id="1348445592" x="4595864.060206948" y="5824505.405946521" desc="1apensionapartmentberlin">
		<activity type="hotel">
		</activity>
	</facility>
	<facility id="1349696692" x="4594402.642136299" y="5821714.088262205" desc="EurostarsBerlin">
		<activity type="hotel">
		</activity>
	</facility>
	<facility id="1358325721" x="4584954.886529773" y="5821204.717028609" desc="BerlinerU-Bahn-Museum">
		<activity type="attraction">
		</activity>
	</facility>
	<facility id="1362945867" x="4602835.223955274" y="5814704.101075327" desc="CheckInHotel">
		<activity type="hotel">
		</activity>
	</facility>
	<facility id="1363463109" x="4596090.82109632" y="5822302.411315238" desc="H2HotelBerlinAlexanderplatz">
		<activity type="hotel">
		</activity>
	</facility>
	<facility id="136777833" x="4606947.49597123" y="5823901.109530263" desc="Bodenlabyrinth">
		<activity type="attraction">
		</activity>
	</facility>
	<facility id="137049846" x="4591410.233008353" y="5819711.827399288" desc="IbisBudget">
		<activity type="hotel">
		</activity>
	</facility>
	<facility id="137219848" x="4607051.9804333765" y="5813456.205367627" desc="SchlossKöpenick">
		<activity type="attraction">
		</activity>
	</facility>
	<facility id="137353386" x="4596364.096948433" y="5823289.103291431" desc="WasserturmPrenzlauerBerg">
		<activity type="attraction">
		</activity>
	</facility>
	<facility id="1382270880" x="4596351.869432463" y="5824339.50527787" desc="Lette'mSleep">
		<activity type="hotel">
		</activity>
	</facility>
	<facility id="138516180" x="4597722.6919804225" y="5825757.1623287685" desc="KunsthalleBerlin-Weißensee">
		<activity type="attraction">
		</activity>
	</facility>
	<facility id="1385272346" x="4597152.344817856" y="5823299.704738036" desc="Melarose">
		<activity type="hotel">
		</activity>
	</facility>
	<facility id="1385305692" x="4598450.808634255" y="5828092.647046641" desc="Graffiti">
		<activity type="attraction">
		</activity>
	</facility>
	<facility id="138539398" x="4590469.059450387" y="5811679.563543046" desc="IsaakMilesHotel">
		<activity type="hotel">
		</activity>
	</facility>
	<facility id="138541922" x="4589823.731079061" y="5811869.1096874755" desc="VillaToscana">
		<activity type="hotel">
		</activity>
	</facility>
	<facility id="1385782361" x="4589905.110246061" y="5820580.295998406" desc="Manufactum">
		<activity type="attraction">
		</activity>
	</facility>
	<facility id="138662865" x="4583780.214808484" y="5809577.309433003" desc="Museum">
		<activity type="attraction">
		</activity>
	</facility>
	<facility id="1390712121" x="4589622.6103293225" y="5820251.066113892" desc="DasVerborgeneMuseum">
		<activity type="attraction">
		</activity>
	</facility>
	<facility id="1395140448" x="4594100.122104846" y="5822504.3077607425" desc="HotelAquino">
		<activity type="hotel">
		</activity>
	</facility>
	<facility id="1405049414" x="4586013.884665064" y="5823491.442396134" desc="HotelSiemensstadt">
		<activity type="hotel">
		</activity>
	</facility>
	<facility id="142028548" x="4615215.749255596" y="5817700.439458393" desc="Raufutterspeicher">
		<activity type="attraction">
		</activity>
	</facility>
	<facility id="142202879" x="4599587.393826697" y="5826415.8642995395" desc="ZentrumamRathaus">
		<activity type="attraction">
		</activity>
	</facility>
	<facility id="142598680" x="4604495.930747179" y="5812035.852941464" desc="DorintAdlershof">
		<activity type="hotel">
		</activity>
	</facility>
	<facility id="14261343" x="4592865.686432865" y="5822047.768326418" desc="IntercityHotel">
		<activity type="hotel">
		</activity>
	</facility>
	<facility id="14261344" x="4592934.67345839" y="5822049.354057149" desc="SteigenbergerHotelAmKanzleramt">
		<activity type="hotel">
		</activity>
	</facility>
	<facility id="142801571" x="4615701.71187089" y="5817816.411407389" desc="HeimathausSchöneiche">
		<activity type="attraction">
		</activity>
	</facility>
	<facility id="1433855703" x="4595651.75988039" y="5822026.7092323685" desc="DDRMuseum:Motorrad">
		<activity type="attraction">
		</activity>
	</facility>
	<facility id="14375945" x="4594562.289320343" y="5823397.890178992" desc="GedenkstätteBerlinerMauer">
		<activity type="attraction">
		</activity>
	</facility>
	<facility id="144078902" x="4590359.073779346" y="5820380.349482024" desc="Effizienzhaus-PlusmitElektromobilität">
		<activity type="attraction">
		</activity>
	</facility>
	<facility id="14437262" x="4590278.134407864" y="5828609.513460356" desc="Haus10AusstellungTotgeschwiegen">
		<activity type="attraction">
		</activity>
	</facility>
	<facility id="1450877690" x="4611093.0283431355" y="5825411.939838352" desc="HönowerHof">
		<activity type="hotel">
		</activity>
	</facility>
	<facility id="145586611" x="4603351.599298986" y="5814351.718673942" desc="DokumentationszentrumNS-Zwangsarbeit">
		<activity type="attraction">
		</activity>
	</facility>
	<facility id="145641680" x="4601524.822987146" y="5811868.564148753" desc="ApartmenthausPetunie">
		<activity type="hotel">
		</activity>
	</facility>
	<facility id="14587479" x="4595949.872123177" y="5819946.198211758" desc="MotelOneBerlin-Mitte">
		<activity type="hotel">
		</activity>
	</facility>
	<facility id="1476011662" x="4595569.04451929" y="5821303.876845155" desc="Zille-Museum">
		<activity type="attraction">
		</activity>
	</facility>
	<facility id="148099838" x="4590126.877656855" y="5826550.681299701" desc="Bärlin">
		<activity type="hotel">
		</activity>
	</facility>
	<facility id="1495251827" x="4589095.513587211" y="5819234.639841457" desc="ArtaLenzHotel">
		<activity type="hotel">
		</activity>
	</facility>
	<facility id="1495251835" x="4588919.435620079" y="5819215.740257837" desc="XantenerEck">
		<activity type="hotel">
		</activity>
	</facility>
	<facility id="1503871568" x="4595811.634420082" y="5824895.43023184" desc="tucapartments">
		<activity type="hotel">
		</activity>
	</facility>
	<facility id="1504564887" x="4598659.094210258" y="5820574.959148758" desc="Goldmarie">
		<activity type="hotel">
		</activity>
	</facility>
	<facility id="1505273433" x="4607049.1496093925" y="5813475.307150124" desc="Kunstgewerbemuseum">
		<activity type="attraction">
		</activity>
	</facility>
	<facility id="150810044" x="4599091.298484177" y="5818490.775901752" desc="ParkCenter">
		<activity type="attraction">
		</activity>
	</facility>
	<facility id="15095436" x="4603615.952985567" y="5819422.742457971" desc="Schwarzschwanz-Präriehund">
		<activity type="attraction">
		</activity>
	</facility>
	<facility id="15095437" x="4603630.387151535" y="5819421.255145936" desc="NordamerikanischerBaumstachler">
		<activity type="attraction">
		</activity>
	</facility>
	<facility id="15099719" x="4602606.056021323" y="5814830.973446654" desc="ZentrumSchöneweide">
		<activity type="attraction">
		</activity>
	</facility>
	<facility id="1512604669" x="4595218.222071842" y="5823134.964500772" desc="MidiInn">
		<activity type="hotel">
		</activity>
	</facility>
	<facility id="1519970115" x="4591588.92933638" y="5818205.984960476" desc="HappyHotelBerlin">
		<activity type="hotel">
		</activity>
	</facility>
	<facility id="152177691" x="4607061.484591505" y="5809957.862504367" desc="TautPassage">
		<activity type="attraction">
		</activity>
	</facility>
	<facility id="1522513810" x="4594222.855942823" y="5815447.107177657" desc="HotelAlt-Tempelhof">
		<activity type="hotel">
		</activity>
	</facility>
	<facility id="1530345432" x="4598578.211000711" y="5820912.459485379" desc="HotelComenius">
		<activity type="hotel">
		</activity>
	</facility>
	<facility id="153772871" x="4596562.674518391" y="5822294.55937391" desc="ibisbudgetBerlinAlexanderplatz">
		<activity type="hotel">
		</activity>
	</facility>
	<facility id="1540406298" x="4607272.98687205" y="5813138.5510929935" desc="Seminar-undGästehausFlussbadGartenstraße">
		<activity type="hotel">
		</activity>
	</facility>
	<facility id="1544188678" x="4595824.02565366" y="5824748.696295298" desc="CityGuesthousePensionBerlin">
		<activity type="hotel">
		</activity>
	</facility>
	<facility id="1561099986" x="4588734.316328835" y="5819268.887839879" desc="LouisasPlace">
		<activity type="hotel">
		</activity>
	</facility>
	<facility id="156959020" x="4602880.144948947" y="5827275.489905535" desc="FALKENBOGEN">
		<activity type="attraction">
		</activity>
	</facility>
	<facility id="15700566" x="4584394.763215609" y="5818970.202276062" desc="FieldStationBerlin">
		<activity type="attraction">
		</activity>
	</facility>
	<facility id="157390075" x="4592971.553265362" y="5821662.534968961" desc="Bundeskanzleramt">
		<activity type="attraction">
		</activity>
	</facility>
	<facility id="1583408273" x="4595203.995414118" y="5826609.702216202" desc="MuseumPankow">
		<activity type="attraction">
		</activity>
	</facility>
	<facility id="1589171931" x="4591458.687533928" y="5817046.334548217" desc="PreußischerMeilenstein">
		<activity type="attraction">
		</activity>
	</facility>
	<facility id="159230368" x="4594741.349380335" y="5817254.982008892" desc="EhemaligerFlughafenBerlin-Tempelhof">
		<activity type="attraction">
		</activity>
	</facility>
	<facility id="1598987141" x="4594739.200587088" y="5821210.065737417" desc="HoteldeRome">
		<activity type="hotel">
		</activity>
	</facility>
	<facility id="16095527" x="4592098.5347791035" y="5820023.637339371" desc="SheratonBerlinGrandHotelEsplanade">
		<activity type="hotel">
		</activity>
	</facility>
	<facility id="1613685634" x="4591935.9219887685" y="5819418.553010675" desc="AparthotelChristie">
		<activity type="hotel">
		</activity>
	</facility>
	<facility id="16142056" x="4608535.01090319" y="5825200.638026026" desc="KaufparkEiche">
		<activity type="attraction">
		</activity>
	</facility>
	<facility id="1632937492" x="4603896.473658215" y="5814877.995600449" desc="HTWBerlin,CampusWilhelminenhof,Geb.C(Computermuseum)">
		<activity type="attraction">
		</activity>
	</facility>
	<facility id="1637952052" x="4596936.822805562" y="5828984.166943922" desc="Pankow">
		<activity type="hotel">
		</activity>
	</facility>
	<facility id="1649134394" x="4595324.390091067" y="5822081.764624489" desc="Muji">
		<activity type="attraction">
		</activity>
	</facility>
	<facility id="1652105" x="4596144.661508437" y="5820986.305211416" desc="MärkischesMuseum">
		<activity type="attraction">
		</activity>
	</facility>
	<facility id="1653339015" x="4595268.33809667" y="5822163.412453405" desc="MuseumBlindenwerkstattOttoWeidt">
		<activity type="attraction">
		</activity>
	</facility>
	<facility id="166024812" x="4600561.1280132625" y="5819797.6853375565" desc="Schrotkugelturm">
		<activity type="attraction">
		</activity>